PCB2
*SPICE Netlist generated by Advanced Sim server on 2019/11/18 15:26:25

*Schematic Netlist:

.SAVE 0


*Selected Circuit Analyses:
.TRAN 2E-8 5E-6 0 2E-8
.OP

.END
